Version 4
SHEET 1 1316 680
WIRE 272 -144 0 -144
WIRE 544 -144 272 -144
WIRE 0 -112 0 -144
WIRE 272 -32 272 -144
WIRE 544 -32 544 -144
WIRE 272 80 272 48
WIRE 544 80 544 48
WIRE 272 256 272 160
WIRE 320 256 272 256
WIRE 368 256 320 256
WIRE 496 256 432 256
WIRE 544 256 544 160
WIRE 544 256 496 256
WIRE 272 352 272 256
WIRE 368 352 272 352
WIRE 544 352 544 256
WIRE 544 352 448 352
WIRE 272 432 272 352
WIRE 544 432 544 352
WIRE 96 512 -32 512
WIRE 224 512 176 512
WIRE 640 512 592 512
WIRE 832 512 720 512
WIRE -32 528 -32 512
WIRE 416 528 272 528
WIRE 544 528 416 528
WIRE 832 544 832 512
WIRE 416 560 416 528
FLAG -32 608 0
FLAG 832 624 0
FLAG 0 -32 0
FLAG 416 560 0
FLAG 320 256 AN0
FLAG 496 256 AN1
FLAG 208 352 0
FLAG 608 352 0
SYMBOL nmos 224 432 R0
SYMATTR InstName M1
SYMATTR Value 2N7002
SYMBOL nmos 592 432 M0
SYMATTR InstName M2
SYMATTR Value 2N7002
SYMBOL ind2 464 336 R90
WINDOW 0 5 56 VBottom 2
WINDOW 3 32 56 VTop 2
SYMATTR InstName L1
SYMATTR Value 775n
SYMATTR SpiceLine Rser=1
SYMATTR Type ind
SYMBOL cap 432 240 R90
WINDOW 0 0 32 VBottom 2
WINDOW 3 32 32 VTop 2
SYMATTR InstName C1
SYMATTR Value 4n
SYMBOL voltage 0 -128 R0
SYMATTR InstName V1
SYMATTR Value 3.3
SYMBOL voltage -32 512 R0
SYMATTR InstName V2
SYMATTR Value PULSE(0 3.3 1100n 1n 1n 99n 200n 80)
SYMBOL voltage 832 528 R0
SYMATTR InstName V3
SYMATTR Value PULSE(0 3.3 1000n 1n 1n 99n 200n 80)
SYMBOL res 192 496 R90
WINDOW 0 0 56 VBottom 2
WINDOW 3 32 56 VTop 2
SYMATTR InstName R3
SYMATTR Value 33
SYMBOL res 736 496 R90
WINDOW 0 0 56 VBottom 2
WINDOW 3 32 56 VTop 2
SYMATTR InstName R4
SYMATTR Value 33
SYMBOL ind2 256 64 R0
SYMATTR InstName L2
SYMATTR Value 3.2µ
SYMATTR Type ind
SYMBOL ind2 528 64 R0
SYMATTR InstName L3
SYMATTR Value 3.2µ
SYMATTR Type ind
SYMBOL res 256 -48 R0
SYMATTR InstName R5
SYMATTR Value 22
SYMBOL res 528 -48 R0
SYMATTR InstName R6
SYMATTR Value 22
SYMBOL cap 608 336 R90
WINDOW 0 0 32 VBottom 2
WINDOW 3 32 32 VTop 2
SYMATTR InstName C2
SYMATTR Value 22p
SYMBOL cap 272 336 R90
WINDOW 0 0 32 VBottom 2
WINDOW 3 32 32 VTop 2
SYMATTR InstName C3
SYMATTR Value 22p
TEXT 328 -208 Left 2 !.tran 0 15u 3u 100p\n.options maxstep=100p plotwinsize=0
TEXT 856 160 Left 2 !K L1 L2 L3 0.8
